REMARK  5 active torsions:
REMARK  status: ('A' for Active; 'I' for Inactive)
REMARK    1  A    between atoms: O1_2  and  C8_14 
REMARK    2  A    between atoms: N2_6  and  C2_8 
REMARK       I    between atoms: N2_6  and  C9_15 
REMARK    3  A    between atoms: C3_9  and  C8_14 
REMARK    4  A    between atoms: C9_15  and  C10_16 
REMARK    5  A    between atoms: C10_16  and  C11_17 
ROOT
HETATM    1  S1  UNL     1       2.683  -1.192  -1.705  1.00  0.00    -0.119 SA
HETATM    2  N1  UNL     1       2.515  -0.658   0.975  1.00  0.00     0.123 N 
HETATM    3  C1  UNL     1       2.574  -1.796   0.022  1.00  0.00     0.310 C 
HETATM    4  C2  UNL     1       1.144  -2.195   0.429  1.00  0.00     0.156 C 
HETATM    5  C3  UNL     1       2.081   0.524   0.207  1.00  0.00     0.339 C 
HETATM    6  C4  UNL     1       1.376  -1.309   1.665  1.00  0.00     0.303 C 
HETATM    7  C5  UNL     1       2.857   0.544  -1.126  1.00  0.00     0.044 C 
HETATM    8  C6  UNL     1       2.215   1.479  -2.153  1.00  0.00     0.029 C 
HETATM    9  C7  UNL     1       4.356   0.851  -0.989  1.00  0.00     0.029 C 
ENDROOT
BRANCH   4  10
HETATM   10  N2  UNL     1       0.005  -1.791  -0.400  1.00  0.00    -0.352 N 
HETATM   11  C9  UNL     1      -1.316  -1.888   0.032  1.00  0.00     0.222 C 
HETATM   12  O3  UNL     1      -1.655  -2.314   1.133  1.00  0.00    -0.273 OA
HETATM   13  H12 UNL     1       0.182  -1.427  -1.334  1.00  0.00     0.163 HD
BRANCH  11  14
HETATM   14  C10 UNL     1      -2.295  -1.408  -1.022  1.00  0.00     0.141 C 
BRANCH  14  15
HETATM   15  C11 UNL     1      -3.145  -0.252  -0.563  1.00  0.00    -0.050 A 
HETATM   16  C12 UNL     1      -4.367  -0.492   0.065  1.00  0.00     0.007 A 
HETATM   17  C14 UNL     1      -5.155   0.579   0.490  1.00  0.00     0.001 A 
HETATM   18  C16 UNL     1      -4.720   1.888   0.286  1.00  0.00     0.000 A 
HETATM   19  C15 UNL     1      -3.498   2.127  -0.343  1.00  0.00     0.001 A 
HETATM   20  C13 UNL     1      -2.710   1.057  -0.767  1.00  0.00     0.007 A 
ENDBRANCH  14  15
ENDBRANCH  11  14
ENDBRANCH   4  10
BRANCH   5  21
HETATM   21  C8  UNL     1       2.350   1.725   1.067  1.00  0.00     0.176 C 
HETATM   22  O2  UNL     1       3.241   1.806   1.900  1.00  0.00    -0.648 OA
BRANCH  21  23
HETATM   23  O1  UNL     1       1.465   2.715   0.797  1.00  0.00    -0.775 OA
HETATM   24  H13 UNL     1       1.625   3.510   1.350  1.00  0.00     0.167 HD
ENDBRANCH  21  23
ENDBRANCH   5  21
TORSDOF 5
