52946032
  -OEChem-05072516313D

 42 44  0     1  0  0  0  0  0999 V2000
    2.6826   -1.1919   -1.7048 S   0  0  0  0  0  0  0  0  0  0  0  0
    1.4653    2.7152    0.7974 O   0  0  0  0  0  0  0  0  0  0  0  0
    3.2411    1.8058    1.8997 O   0  0  0  0  0  0  0  0  0  0  0  0
   -1.6554   -2.3145    1.1331 O   0  0  0  0  0  0  0  0  0  0  0  0
    2.5149   -0.6582    0.9748 N   0  0  1  0  0  0  0  0  0  0  0  0
    0.0054   -1.7908   -0.4004 N   0  0  0  0  0  0  0  0  0  0  0  0
    2.5739   -1.7960    0.0221 C   0  0  1  0  0  0  0  0  0  0  0  0
    1.1441   -2.1947    0.4294 C   0  0  1  0  0  0  0  0  0  0  0  0
    2.0809    0.5244    0.2071 C   0  0  2  0  0  0  0  0  0  0  0  0
    1.3763   -1.3089    1.6646 C   0  0  0  0  0  0  0  0  0  0  0  0
    2.8566    0.5437   -1.1261 C   0  0  0  0  0  0  0  0  0  0  0  0
    2.2148    1.4794   -2.1532 C   0  0  0  0  0  0  0  0  0  0  0  0
    4.3557    0.8506   -0.9895 C   0  0  0  0  0  0  0  0  0  0  0  0
    2.3503    1.7246    1.0671 C   0  0  0  0  0  0  0  0  0  0  0  0
   -1.3162   -1.8880    0.0322 C   0  0  0  0  0  0  0  0  0  0  0  0
   -2.2948   -1.4076   -1.0215 C   0  0  0  0  0  0  0  0  0  0  0  0
   -3.1451   -0.2524   -0.5631 C   0  0  0  0  0  0  0  0  0  0  0  0
   -4.3672   -0.4917    0.0652 C   0  0  0  0  0  0  0  0  0  0  0  0
   -2.7104    1.0571   -0.7669 C   0  0  0  0  0  0  0  0  0  0  0  0
   -5.1547    0.5786    0.4897 C   0  0  0  0  0  0  0  0  0  0  0  0
   -3.4978    2.1274   -0.3425 C   0  0  0  0  0  0  0  0  0  0  0  0
   -4.7201    1.8881    0.2857 C   0  0  0  0  0  0  0  0  0  0  0  0
    3.3364   -2.5394    0.2809 H   0  0  0  0  0  0  0  0  0  0  0  0
    1.0597   -3.2618    0.6726 H   0  0  0  0  0  0  0  0  0  0  0  0
    0.9989    0.5124    0.0135 H   0  0  0  0  0  0  0  0  0  0  0  0
    0.5584   -0.6488    1.9745 H   0  0  0  0  0  0  0  0  0  0  0  0
    1.6879   -1.8765    2.5508 H   0  0  0  0  0  0  0  0  0  0  0  0
    1.1475    1.2679   -2.2876 H   0  0  0  0  0  0  0  0  0  0  0  0
    2.3030    2.5249   -1.8378 H   0  0  0  0  0  0  0  0  0  0  0  0
    2.6999    1.3965   -3.1330 H   0  0  0  0  0  0  0  0  0  0  0  0
    4.5141    1.8860   -0.6670 H   0  0  0  0  0  0  0  0  0  0  0  0
    4.8547    0.2024   -0.2605 H   0  0  0  0  0  0  0  0  0  0  0  0
    4.8759    0.7359   -1.9483 H   0  0  0  0  0  0  0  0  0  0  0  0
    0.1815   -1.4274   -1.3338 H   0  0  0  0  0  0  0  0  0  0  0  0
    1.6249    3.5097    1.3501 H   0  0  0  0  0  0  0  0  0  0  0  0
   -2.9322   -2.2608   -1.2873 H   0  0  0  0  0  0  0  0  0  0  0  0
   -1.7805   -1.1326   -1.9503 H   0  0  0  0  0  0  0  0  0  0  0  0
   -4.7161   -1.5075    0.2313 H   0  0  0  0  0  0  0  0  0  0  0  0
   -1.7584    1.2557   -1.2523 H   0  0  0  0  0  0  0  0  0  0  0  0
   -6.1061    0.3922    0.9793 H   0  0  0  0  0  0  0  0  0  0  0  0
   -3.1589    3.1471   -0.5003 H   0  0  0  0  0  0  0  0  0  0  0  0
   -5.3329    2.7215    0.6165 H   0  0  0  0  0  0  0  0  0  0  0  0
  1  7  1  0  0  0  0
  1 11  1  0  0  0  0
  2 14  1  0  0  0  0
  2 35  1  0  0  0  0
  3 14  2  0  0  0  0
  4 15  2  0  0  0  0
  5  7  1  0  0  0  0
  5  9  1  0  0  0  0
  5 10  1  0  0  0  0
  6  8  1  0  0  0  0
  6 15  1  0  0  0  0
  6 34  1  0  0  0  0
  7  8  1  0  0  0  0
  7 23  1  0  0  0  0
  8 10  1  0  0  0  0
  8 24  1  0  0  0  0
  9 11  1  0  0  0  0
  9 14  1  0  0  0  0
  9 25  1  0  0  0  0
 10 26  1  0  0  0  0
 10 27  1  0  0  0  0
 11 12  1  0  0  0  0
 11 13  1  0  0  0  0
 12 28  1  0  0  0  0
 12 29  1  0  0  0  0
 12 30  1  0  0  0  0
 13 31  1  0  0  0  0
 13 32  1  0  0  0  0
 13 33  1  0  0  0  0
 15 16  1  0  0  0  0
 16 17  1  0  0  0  0
 16 36  1  0  0  0  0
 16 37  1  0  0  0  0
 17 18  2  0  0  0  0
 17 19  1  0  0  0  0
 18 20  1  0  0  0  0
 18 38  1  0  0  0  0
 19 21  2  0  0  0  0
 19 39  1  0  0  0  0
 20 22  2  0  0  0  0
 20 40  1  0  0  0  0
 21 22  1  0  0  0  0
 21 41  1  0  0  0  0
 22 42  1  0  0  0  0
M  END
> <PUBCHEM_COMPOUND_CID>
52946032

> <PUBCHEM_CONFORMER_RMSD>
0.8

> <PUBCHEM_CONFORMER_DIVERSEORDER>
1
12
13
14
16
23
8
17
6
7
19
2
22
5
18
21
11
9
15
20
4
24
3
10

> <PUBCHEM_MMFF94_PARTIAL_CHARGES>
27
1 -0.45
10 0.21
11 0.23
14 0.66
15 0.57
16 0.2
17 -0.14
18 -0.15
19 -0.15
2 -0.65
20 -0.15
21 -0.15
22 -0.15
3 -0.57
34 0.37
35 0.5
38 0.15
39 0.15
4 -0.57
40 0.15
41 0.15
42 0.15
5 -0.69
6 -0.65
7 0.43
8 0.22
9 0.33

> <PUBCHEM_EFFECTIVE_ROTOR_COUNT>
6

> <PUBCHEM_PHARMACOPHORE_FEATURES>
9
1 2 acceptor
1 3 acceptor
1 4 acceptor
1 5 cation
1 6 donor
3 11 12 13 hydrophobe
3 2 3 14 anion
6 17 18 19 20 21 22 rings
7 1 5 7 8 9 10 11 rings

> <PUBCHEM_HEAVY_ATOM_COUNT>
22

> <PUBCHEM_ATOM_DEF_STEREO_COUNT>
3

> <PUBCHEM_ATOM_UDEF_STEREO_COUNT>
0

> <PUBCHEM_BOND_DEF_STEREO_COUNT>
0

> <PUBCHEM_BOND_UDEF_STEREO_COUNT>
0

> <PUBCHEM_ISOTOPIC_ATOM_COUNT>
0

> <PUBCHEM_COMPONENT_COUNT>
1

> <PUBCHEM_CACTVS_TAUTO_COUNT>
2

> <PUBCHEM_CONFORMER_ID>
0327E47000000001

> <PUBCHEM_MMFF94_ENERGY>
61.9412

> <PUBCHEM_FEATURE_SELFOVERLAP>
45.726

> <PUBCHEM_SHAPE_FINGERPRINT>
10382601 240 17530680996578676134
10498660 4 18412255151911302189
10764073 3 18124284179294973842
11221954 11 18196926884368218577
11720765 8 17416132681370053294
11725454 13 16913104178874476914
12173636 292 18411412951817168295
12422481 6 17825357775376700904
12596599 1 17561369478495910393
13224815 77 18187364312004456509
13464514 151 18412826919416848698
13965767 371 18116412800366785554
14251732 17 18129084784321722008
14251757 17 17988650700423612553
14251764 30 13985758691666230672
15163728 17 18123190375357545416
15210252 30 18188505634997279076
15238133 3 18337952290472915562
15295992 7 18408605838195777243
15338160 23 11178157042493757206
15422964 175 10881670321611251018
18186145 218 17989486312323335675
18981168 100 18339650052031941130
20233049 118 18411418380449354814
21503847 285 18115593629944957639
21864079 5 18271796926592852787
23419403 2 15982838980303912754
23503958 25 18265904746431756571
23557571 272 18192721269762385095
23559900 14 17751639841397988683
2637199 183 18261969461066659847
3009799 131 17704080590740015742
38570 142 17314539052451326318
46194498 28 17559684016932183950
474 4 17967534584102359495
5161694 15 16558750109446505863
5895379 119 17273704156520430680
7399639 24 17698440271192062918
7808743 9 18188500201651912316

> <PUBCHEM_SHAPE_MULTIPOLES>
429.03
9.26
2.87
1.63
9.51
0.13
0.06
4.15
0.53
-0.28
-0.57
-1.75
0.33
0.17

> <PUBCHEM_SHAPE_SELFOVERLAP>
895.085

> <PUBCHEM_SHAPE_VOLUME>
244.9

> <PUBCHEM_COORDINATE_TYPE>
2
5
10

$$$$
