MODEL 1
REMARK VINA RESULT:      -6.5      0.000      0.000
REMARK  5 active torsions:
REMARK  status: ('A' for Active; 'I' for Inactive)
REMARK    1  A    between atoms: O1_2  and  C8_14 
REMARK    2  A    between atoms: N2_6  and  C2_8 
REMARK       I    between atoms: N2_6  and  C9_15 
REMARK    3  A    between atoms: C3_9  and  C8_14 
REMARK    4  A    between atoms: C9_15  and  C10_16 
REMARK    5  A    between atoms: C10_16  and  C11_17 
ROOT
HETATM    1  S1  UNL     1     -18.485 -14.427  10.623  1.00  0.00    -0.119 SA
HETATM    2  N1  UNL     1     -15.918 -14.515   9.675  1.00  0.00     0.123 N 
HETATM    3  C1  UNL     1     -16.699 -14.705  10.924  1.00  0.00     0.310 C 
HETATM    4  C2  UNL     1     -15.996 -13.479  11.536  1.00  0.00     0.156 C 
HETATM    5  C3  UNL     1     -16.755 -13.713   8.763  1.00  0.00     0.339 C 
HETATM    6  C4  UNL     1     -14.955 -13.668  10.419  1.00  0.00     0.303 C 
HETATM    7  C5  UNL     1     -18.193 -14.269   8.815  1.00  0.00     0.044 C 
HETATM    8  C6  UNL     1     -19.211 -13.289   8.229  1.00  0.00     0.029 C 
HETATM    9  C7  UNL     1     -18.365 -15.659   8.182  1.00  0.00     0.029 C 
ENDROOT
BRANCH   4  10
HETATM   10  N2  UNL     1     -16.661 -12.173  11.530  1.00  0.00    -0.352 N 
HETATM   11  C9  UNL     1     -16.784 -11.383  12.671  1.00  0.00     0.222 C 
HETATM   12  O3  UNL     1     -16.355 -11.695  13.779  1.00  0.00    -0.273 OA
HETATM   13  H12 UNL     1     -17.054 -11.826  10.658  1.00  0.00     0.163 HD
BRANCH  11  14
HETATM   14  C10 UNL     1     -17.517 -10.086  12.387  1.00  0.00     0.141 C 
BRANCH  14  15
HETATM   15  C11 UNL     1     -18.818 -10.286  11.654  1.00  0.00    -0.050 A 
HETATM   16  C12 UNL     1     -19.862 -10.982  12.264  1.00  0.00     0.007 A 
HETATM   17  C14 UNL     1     -21.068 -11.167  11.585  1.00  0.00     0.001 A 
HETATM   18  C16 UNL     1     -21.227 -10.657  10.297  1.00  0.00     0.000 A 
HETATM   19  C15 UNL     1     -20.182  -9.963   9.687  1.00  0.00     0.001 A 
HETATM   20  C13 UNL     1     -18.978  -9.776  10.366  1.00  0.00     0.007 A 
ENDBRANCH  14  15
ENDBRANCH  11  14
ENDBRANCH   4  10
BRANCH   5  21
HETATM   21  C8  UNL     1     -16.131 -13.811   7.401  1.00  0.00     0.176 C 
HETATM   22  O2  UNL     1     -16.387 -13.077   6.457  1.00  0.00    -0.648 OA
BRANCH  21  23
HETATM   23  O1  UNL     1     -15.240 -14.831   7.354  1.00  0.00    -0.775 OA
HETATM   24  H13 UNL     1     -15.618 -15.628   6.924  1.00  0.00     0.167 HD
ENDBRANCH  21  23
ENDBRANCH   5  21
TORSDOF 5
ENDMDL
MODEL 2
REMARK VINA RESULT:      -6.4     19.916     21.670
REMARK  5 active torsions:
REMARK  status: ('A' for Active; 'I' for Inactive)
REMARK    1  A    between atoms: O1_2  and  C8_14 
REMARK    2  A    between atoms: N2_6  and  C2_8 
REMARK       I    between atoms: N2_6  and  C9_15 
REMARK    3  A    between atoms: C3_9  and  C8_14 
REMARK    4  A    between atoms: C9_15  and  C10_16 
REMARK    5  A    between atoms: C10_16  and  C11_17 
ROOT
HETATM    1  S1  UNL     1     -11.811   7.925   9.383  1.00  0.00    -0.119 SA
HETATM    2  N1  UNL     1     -11.440   5.308  10.098  1.00  0.00     0.123 N 
HETATM    3  C1  UNL     1     -10.971   6.678  10.431  1.00  0.00     0.310 C 
HETATM    4  C2  UNL     1      -9.567   6.309   9.918  1.00  0.00     0.156 C 
HETATM    5  C3  UNL     1     -12.033   5.373   8.749  1.00  0.00     0.339 C 
HETATM    6  C4  UNL     1     -10.031   4.849  10.054  1.00  0.00     0.303 C 
HETATM    7  C5  UNL     1     -12.912   6.638   8.670  1.00  0.00     0.044 C 
HETATM    8  C6  UNL     1     -13.251   7.015   7.226  1.00  0.00     0.029 C 
HETATM    9  C7  UNL     1     -14.191   6.582   9.520  1.00  0.00     0.029 C 
ENDROOT
BRANCH   4  10
HETATM   10  N2  UNL     1      -9.157   6.691   8.564  1.00  0.00    -0.352 N 
HETATM   11  C9  UNL     1      -8.360   7.802   8.301  1.00  0.00     0.222 C 
HETATM   12  O3  UNL     1      -7.926   8.563   9.162  1.00  0.00    -0.273 OA
HETATM   13  H12 UNL     1      -9.470   6.124   7.778  1.00  0.00     0.163 HD
BRANCH  11  14
HETATM   14  C10 UNL     1      -8.090   7.970   6.818  1.00  0.00     0.141 C 
BRANCH  14  15
HETATM   15  C11 UNL     1      -8.762   9.180   6.223  1.00  0.00    -0.050 A 
HETATM   16  C12 UNL     1      -7.997  10.273   5.818  1.00  0.00     0.007 A 
HETATM   17  C14 UNL     1      -8.620  11.395   5.267  1.00  0.00     0.001 A 
HETATM   18  C16 UNL     1     -10.006  11.422   5.124  1.00  0.00     0.000 A 
HETATM   19  C15 UNL     1     -10.771  10.328   5.531  1.00  0.00     0.001 A 
HETATM   20  C13 UNL     1     -10.149   9.207   6.080  1.00  0.00     0.007 A 
ENDBRANCH  14  15
ENDBRANCH  11  14
ENDBRANCH   4  10
BRANCH   5  21
HETATM   21  C8  UNL     1     -12.805   4.101   8.551  1.00  0.00     0.176 C 
HETATM   22  O2  UNL     1     -13.425   3.513   9.426  1.00  0.00    -0.648 OA
BRANCH  21  23
HETATM   23  O1  UNL     1     -12.722   3.685   7.264  1.00  0.00    -0.775 OA
HETATM   24  H13 UNL     1     -13.550   3.861   6.768  1.00  0.00     0.167 HD
ENDBRANCH  21  23
ENDBRANCH   5  21
TORSDOF 5
ENDMDL
MODEL 3
REMARK VINA RESULT:      -6.4     30.650     32.242
REMARK  5 active torsions:
REMARK  status: ('A' for Active; 'I' for Inactive)
REMARK    1  A    between atoms: O1_2  and  C8_14 
REMARK    2  A    between atoms: N2_6  and  C2_8 
REMARK       I    between atoms: N2_6  and  C9_15 
REMARK    3  A    between atoms: C3_9  and  C8_14 
REMARK    4  A    between atoms: C9_15  and  C10_16 
REMARK    5  A    between atoms: C10_16  and  C11_17 
ROOT
HETATM    1  S1  UNL     1       9.296 -29.960  16.748  1.00  0.00    -0.119 SA
HETATM    2  N1  UNL     1      11.262 -28.133  16.204  1.00  0.00     0.123 N 
HETATM    3  C1  UNL     1      11.010 -29.362  17.000  1.00  0.00     0.310 C 
HETATM    4  C2  UNL     1      11.176 -28.543  18.293  1.00  0.00     0.156 C 
HETATM    5  C3  UNL     1       9.945 -27.554  15.880  1.00  0.00     0.339 C 
HETATM    6  C4  UNL     1      11.860 -27.494  17.400  1.00  0.00     0.303 C 
HETATM    7  C5  UNL     1       9.010 -28.699  15.441  1.00  0.00     0.044 C 
HETATM    8  C6  UNL     1       7.538 -28.282  15.464  1.00  0.00     0.029 C 
HETATM    9  C7  UNL     1       9.364 -29.331  14.086  1.00  0.00     0.029 C 
ENDROOT
BRANCH   4  10
HETATM   10  N2  UNL     1       9.995 -28.052  19.008  1.00  0.00    -0.352 N 
HETATM   11  C9  UNL     1       9.939 -27.954  20.397  1.00  0.00     0.222 C 
HETATM   12  O3  UNL     1      10.858 -28.262  21.151  1.00  0.00    -0.273 OA
HETATM   13  H12 UNL     1       9.177 -27.773  18.471  1.00  0.00     0.163 HD
BRANCH  11  14
HETATM   14  C10 UNL     1       8.601 -27.422  20.875  1.00  0.00     0.141 C 
BRANCH  14  15
HETATM   15  C11 UNL     1       7.566 -28.499  21.065  1.00  0.00    -0.050 A 
HETATM   16  C12 UNL     1       7.926 -29.719  21.638  1.00  0.00     0.007 A 
HETATM   17  C14 UNL     1       6.967 -30.717  21.814  1.00  0.00     0.001 A 
HETATM   18  C16 UNL     1       5.649 -30.495  21.417  1.00  0.00     0.000 A 
HETATM   19  C15 UNL     1       5.289 -29.275  20.844  1.00  0.00     0.001 A 
HETATM   20  C13 UNL     1       6.248 -28.277  20.668  1.00  0.00     0.007 A 
ENDBRANCH  14  15
ENDBRANCH  11  14
ENDBRANCH   4  10
BRANCH   5  21
HETATM   21  C8  UNL     1      10.173 -26.530  14.805  1.00  0.00     0.176 C 
HETATM   22  O2  UNL     1      11.153 -26.484  14.077  1.00  0.00    -0.648 OA
BRANCH  21  23
HETATM   23  O1  UNL     1       9.139 -25.656  14.750  1.00  0.00    -0.775 OA
HETATM   24  H13 UNL     1       8.695 -25.559  15.620  1.00  0.00     0.167 HD
ENDBRANCH  21  23
ENDBRANCH   5  21
TORSDOF 5
ENDMDL
MODEL 4
REMARK VINA RESULT:      -6.3     27.711     30.265
REMARK  5 active torsions:
REMARK  status: ('A' for Active; 'I' for Inactive)
REMARK    1  A    between atoms: O1_2  and  C8_14 
REMARK    2  A    between atoms: N2_6  and  C2_8 
REMARK       I    between atoms: N2_6  and  C9_15 
REMARK    3  A    between atoms: C3_9  and  C8_14 
REMARK    4  A    between atoms: C9_15  and  C10_16 
REMARK    5  A    between atoms: C10_16  and  C11_17 
ROOT
HETATM    1  S1  UNL     1       6.484 -30.873  17.197  1.00  0.00    -0.119 SA
HETATM    2  N1  UNL     1       6.380 -28.779  15.436  1.00  0.00     0.123 N 
HETATM    3  C1  UNL     1       7.352 -29.675  16.115  1.00  0.00     0.310 C 
HETATM    4  C2  UNL     1       7.909 -28.464  16.886  1.00  0.00     0.156 C 
HETATM    5  C3  UNL     1       5.129 -28.834  16.214  1.00  0.00     0.339 C 
HETATM    6  C4  UNL     1       7.209 -27.610  15.816  1.00  0.00     0.303 C 
HETATM    7  C5  UNL     1       4.850 -30.307  16.576  1.00  0.00     0.044 C 
HETATM    8  C6  UNL     1       3.817 -30.440  17.696  1.00  0.00     0.029 C 
HETATM    9  C7  UNL     1       4.461 -31.196  15.384  1.00  0.00     0.029 C 
ENDROOT
BRANCH   4  10
HETATM   10  N2  UNL     1       7.465 -28.200  18.258  1.00  0.00    -0.352 N 
HETATM   11  C9  UNL     1       8.347 -28.105  19.332  1.00  0.00     0.222 C 
HETATM   12  O3  UNL     1       9.566 -28.230  19.241  1.00  0.00    -0.273 OA
HETATM   13  H12 UNL     1       6.470 -28.084  18.438  1.00  0.00     0.163 HD
BRANCH  11  14
HETATM   14  C10 UNL     1       7.625 -27.831  20.637  1.00  0.00     0.141 C 
BRANCH  14  15
HETATM   15  C11 UNL     1       6.700 -28.946  21.051  1.00  0.00    -0.050 A 
HETATM   16  C12 UNL     1       5.321 -28.741  21.058  1.00  0.00     0.007 A 
HETATM   17  C14 UNL     1       4.464 -29.774  21.442  1.00  0.00     0.001 A 
HETATM   18  C16 UNL     1       4.988 -31.009  21.820  1.00  0.00     0.000 A 
HETATM   19  C15 UNL     1       6.368 -31.213  21.814  1.00  0.00     0.001 A 
HETATM   20  C13 UNL     1       7.224 -30.181  21.429  1.00  0.00     0.007 A 
ENDBRANCH  14  15
ENDBRANCH  11  14
ENDBRANCH   4  10
BRANCH   5  21
HETATM   21  C8  UNL     1       4.057 -28.220  15.360  1.00  0.00     0.176 C 
HETATM   22  O2  UNL     1       3.008 -27.754  15.778  1.00  0.00    -0.648 OA
BRANCH  21  23
HETATM   23  O1  UNL     1       4.410 -28.255  14.052  1.00  0.00    -0.775 OA
HETATM   24  H13 UNL     1       5.103 -28.928  13.877  1.00  0.00     0.167 HD
ENDBRANCH  21  23
ENDBRANCH   5  21
TORSDOF 5
ENDMDL
MODEL 5
REMARK VINA RESULT:      -6.3     30.777     32.776
REMARK  5 active torsions:
REMARK  status: ('A' for Active; 'I' for Inactive)
REMARK    1  A    between atoms: O1_2  and  C8_14 
REMARK    2  A    between atoms: N2_6  and  C2_8 
REMARK       I    between atoms: N2_6  and  C9_15 
REMARK    3  A    between atoms: C3_9  and  C8_14 
REMARK    4  A    between atoms: C9_15  and  C10_16 
REMARK    5  A    between atoms: C10_16  and  C11_17 
ROOT
HETATM    1  S1  UNL     1       3.845 -32.800  20.041  1.00  0.00    -0.119 SA
HETATM    2  N1  UNL     1       2.729 -32.935  22.538  1.00  0.00     0.123 N 
HETATM    3  C1  UNL     1       2.959 -31.982  21.421  1.00  0.00     0.310 C 
HETATM    4  C2  UNL     1       3.891 -31.161  22.330  1.00  0.00     0.156 C 
HETATM    5  C3  UNL     1       3.693 -34.038  22.367  1.00  0.00     0.339 C 
HETATM    6  C4  UNL     1       3.228 -31.918  23.494  1.00  0.00     0.303 C 
HETATM    7  C5  UNL     1       3.714 -34.433  20.876  1.00  0.00     0.044 C 
HETATM    8  C6  UNL     1       4.940 -35.276  20.519  1.00  0.00     0.029 C 
HETATM    9  C7  UNL     1       2.432 -35.119  20.377  1.00  0.00     0.029 C 
ENDROOT
BRANCH   4  10
HETATM   10  N2  UNL     1       5.344 -31.337  22.243  1.00  0.00    -0.352 N 
HETATM   11  C9  UNL     1       6.185 -30.394  21.657  1.00  0.00     0.222 C 
HETATM   12  O3  UNL     1       5.803 -29.336  21.163  1.00  0.00    -0.273 OA
HETATM   13  H12 UNL     1       5.759 -32.185  22.622  1.00  0.00     0.163 HD
BRANCH  11  14
HETATM   14  C10 UNL     1       7.638 -30.827  21.696  1.00  0.00     0.141 C 
BRANCH  14  15
HETATM   15  C11 UNL     1       8.605 -29.672  21.678  1.00  0.00    -0.050 A 
HETATM   16  C12 UNL     1       9.085 -29.184  20.463  1.00  0.00     0.007 A 
HETATM   17  C14 UNL     1       9.981 -28.114  20.446  1.00  0.00     0.001 A 
HETATM   18  C16 UNL     1      10.396 -27.534  21.645  1.00  0.00     0.000 A 
HETATM   19  C15 UNL     1       9.915 -28.023  22.859  1.00  0.00     0.001 A 
HETATM   20  C13 UNL     1       9.019 -29.091  22.876  1.00  0.00     0.007 A 
ENDBRANCH  14  15
ENDBRANCH  11  14
ENDBRANCH   4  10
BRANCH   5  21
HETATM   21  C8  UNL     1       3.244 -35.152  23.268  1.00  0.00     0.176 C 
HETATM   22  O2  UNL     1       2.082 -35.492  23.438  1.00  0.00    -0.648 OA
BRANCH  21  23
HETATM   23  O1  UNL     1       4.307 -35.734  23.876  1.00  0.00    -0.775 OA
HETATM   24  H13 UNL     1       4.482 -35.344  24.759  1.00  0.00     0.167 HD
ENDBRANCH  21  23
ENDBRANCH   5  21
TORSDOF 5
ENDMDL
MODEL 6
REMARK VINA RESULT:      -6.1     26.297     28.912
REMARK  5 active torsions:
REMARK  status: ('A' for Active; 'I' for Inactive)
REMARK    1  A    between atoms: O1_2  and  C8_14 
REMARK    2  A    between atoms: N2_6  and  C2_8 
REMARK       I    between atoms: N2_6  and  C9_15 
REMARK    3  A    between atoms: C3_9  and  C8_14 
REMARK    4  A    between atoms: C9_15  and  C10_16 
REMARK    5  A    between atoms: C10_16  and  C11_17 
ROOT
HETATM    1  S1  UNL     1      12.801 -20.769   6.555  1.00  0.00    -0.119 SA
HETATM    2  N1  UNL     1      11.720 -19.196   4.592  1.00  0.00     0.123 N 
HETATM    3  C1  UNL     1      12.326 -19.107   5.945  1.00  0.00     0.310 C 
HETATM    4  C2  UNL     1      10.975 -18.626   6.505  1.00  0.00     0.156 C 
HETATM    5  C3  UNL     1      11.270 -20.590   4.413  1.00  0.00     0.339 C 
HETATM    6  C4  UNL     1      10.613 -18.319   5.041  1.00  0.00     0.303 C 
HETATM    7  C5  UNL     1      12.382 -21.525   4.933  1.00  0.00     0.044 C 
HETATM    8  C6  UNL     1      11.875 -22.950   5.163  1.00  0.00     0.029 C 
HETATM    9  C7  UNL     1      13.656 -21.544   4.075  1.00  0.00     0.029 C 
ENDROOT
BRANCH   4  10
HETATM   10  N2  UNL     1      10.074 -19.574   7.165  1.00  0.00    -0.352 N 
HETATM   11  C9  UNL     1       9.289 -19.231   8.264  1.00  0.00     0.222 C 
HETATM   12  O3  UNL     1       9.273 -18.118   8.783  1.00  0.00    -0.273 OA
HETATM   13  H12 UNL     1      10.019 -20.527   6.811  1.00  0.00     0.163 HD
BRANCH  11  14
HETATM   14  C10 UNL     1       8.456 -20.399   8.754  1.00  0.00     0.141 C 
BRANCH  14  15
HETATM   15  C11 UNL     1       7.448 -20.013   9.805  1.00  0.00    -0.050 A 
HETATM   16  C12 UNL     1       7.819 -19.989  11.150  1.00  0.00     0.007 A 
HETATM   17  C14 UNL     1       6.885 -19.631  12.124  1.00  0.00     0.001 A 
HETATM   18  C16 UNL     1       5.583 -19.299  11.753  1.00  0.00     0.000 A 
HETATM   19  C15 UNL     1       5.213 -19.324  10.408  1.00  0.00     0.001 A 
HETATM   20  C13 UNL     1       6.146 -19.681   9.434  1.00  0.00     0.007 A 
ENDBRANCH  14  15
ENDBRANCH  11  14
ENDBRANCH   4  10
BRANCH   5  21
HETATM   21  C8  UNL     1      10.981 -20.770   2.951  1.00  0.00     0.176 C 
HETATM   22  O2  UNL     1      11.680 -20.351   2.040  1.00  0.00    -0.648 OA
BRANCH  21  23
HETATM   23  O1  UNL     1       9.830 -21.463   2.773  1.00  0.00    -0.775 OA
HETATM   24  H13 UNL     1       9.054 -20.868   2.686  1.00  0.00     0.167 HD
ENDBRANCH  21  23
ENDBRANCH   5  21
TORSDOF 5
ENDMDL
MODEL 7
REMARK VINA RESULT:      -6.1     19.192     21.142
REMARK  5 active torsions:
REMARK  status: ('A' for Active; 'I' for Inactive)
REMARK    1  A    between atoms: O1_2  and  C8_14 
REMARK    2  A    between atoms: N2_6  and  C2_8 
REMARK       I    between atoms: N2_6  and  C9_15 
REMARK    3  A    between atoms: C3_9  and  C8_14 
REMARK    4  A    between atoms: C9_15  and  C10_16 
REMARK    5  A    between atoms: C10_16  and  C11_17 
ROOT
HETATM    1  S1  UNL     1     -12.293   8.597   9.693  1.00  0.00    -0.119 SA
HETATM    2  N1  UNL     1     -10.334   9.137   7.859  1.00  0.00     0.123 N 
HETATM    3  C1  UNL     1     -11.717   9.533   8.226  1.00  0.00     0.310 C 
HETATM    4  C2  UNL     1     -12.226   8.940   6.899  1.00  0.00     0.156 C 
HETATM    5  C3  UNL     1     -10.085   7.820   8.475  1.00  0.00     0.339 C 
HETATM    6  C4  UNL     1     -10.758   9.006   6.445  1.00  0.00     0.303 C 
HETATM    7  C5  UNL     1     -10.627   7.853   9.919  1.00  0.00     0.044 C 
HETATM    8  C6  UNL     1     -10.783   6.451  10.509  1.00  0.00     0.029 C 
HETATM    9  C7  UNL     1      -9.833   8.751  10.880  1.00  0.00     0.029 C 
ENDROOT
BRANCH   4  10
HETATM   10  N2  UNL     1     -12.808   7.596   6.871  1.00  0.00    -0.352 N 
HETATM   11  C9  UNL     1     -14.150   7.360   6.580  1.00  0.00     0.222 C 
HETATM   12  O3  UNL     1     -14.968   8.239   6.322  1.00  0.00    -0.273 OA
HETATM   13  H12 UNL     1     -12.211   6.797   7.076  1.00  0.00     0.163 HD
BRANCH  11  14
HETATM   14  C10 UNL     1     -14.489   5.882   6.624  1.00  0.00     0.141 C 
BRANCH  14  15
HETATM   15  C11 UNL     1     -14.183   5.240   7.951  1.00  0.00    -0.050 A 
HETATM   16  C12 UNL     1     -14.879   5.634   9.094  1.00  0.00     0.007 A 
HETATM   17  C14 UNL     1     -14.594   5.039  10.324  1.00  0.00     0.001 A 
HETATM   18  C16 UNL     1     -13.614   4.051  10.410  1.00  0.00     0.000 A 
HETATM   19  C15 UNL     1     -12.918   3.658   9.267  1.00  0.00     0.001 A 
HETATM   20  C13 UNL     1     -13.202   4.252   8.037  1.00  0.00     0.007 A 
ENDBRANCH  14  15
ENDBRANCH  11  14
ENDBRANCH   4  10
BRANCH   5  21
HETATM   21  C8  UNL     1      -8.605   7.577   8.404  1.00  0.00     0.176 C 
HETATM   22  O2  UNL     1      -7.747   8.441   8.513  1.00  0.00    -0.648 OA
BRANCH  21  23
HETATM   23  O1  UNL     1      -8.345   6.264   8.197  1.00  0.00    -0.775 OA
HETATM   24  H13 UNL     1      -7.854   6.115   7.360  1.00  0.00     0.167 HD
ENDBRANCH  21  23
ENDBRANCH   5  21
TORSDOF 5
ENDMDL
MODEL 8
REMARK VINA RESULT:      -6.0     21.384     23.221
REMARK  5 active torsions:
REMARK  status: ('A' for Active; 'I' for Inactive)
REMARK    1  A    between atoms: O1_2  and  C8_14 
REMARK    2  A    between atoms: N2_6  and  C2_8 
REMARK       I    between atoms: N2_6  and  C9_15 
REMARK    3  A    between atoms: C3_9  and  C8_14 
REMARK    4  A    between atoms: C9_15  and  C10_16 
REMARK    5  A    between atoms: C10_16  and  C11_17 
ROOT
HETATM    1  S1  UNL     1      -9.029  11.024   8.452  1.00  0.00    -0.119 SA
HETATM    2  N1  UNL     1      -7.873   8.767   7.419  1.00  0.00     0.123 N 
HETATM    3  C1  UNL     1      -7.892  10.243   7.246  1.00  0.00     0.310 C 
HETATM    4  C2  UNL     1      -8.525  10.059   5.855  1.00  0.00     0.156 C 
HETATM    5  C3  UNL     1      -9.104   8.404   8.145  1.00  0.00     0.339 C 
HETATM    6  C4  UNL     1      -8.035   8.604   5.954  1.00  0.00     0.303 C 
HETATM    7  C5  UNL     1      -9.301   9.413   9.295  1.00  0.00     0.044 C 
HETATM    8  C6  UNL     1     -10.724   9.378   9.856  1.00  0.00     0.029 C 
HETATM    9  C7  UNL     1      -8.275   9.294  10.433  1.00  0.00     0.029 C 
ENDROOT
BRANCH   4  10
HETATM   10  N2  UNL     1      -9.974  10.199   5.684  1.00  0.00    -0.352 N 
HETATM   11  C9  UNL     1     -10.639   9.811   4.522  1.00  0.00     0.222 C 
HETATM   12  O3  UNL     1     -10.088   9.320   3.541  1.00  0.00    -0.273 OA
HETATM   13  H12 UNL     1     -10.521  10.601   6.442  1.00  0.00     0.163 HD
BRANCH  11  14
HETATM   14  C10 UNL     1     -12.130  10.071   4.608  1.00  0.00     0.141 C 
BRANCH  14  15
HETATM   15  C11 UNL     1     -12.895   8.942   5.249  1.00  0.00    -0.050 A 
HETATM   16  C12 UNL     1     -12.464   8.409   6.463  1.00  0.00     0.007 A 
HETATM   17  C14 UNL     1     -13.172   7.363   7.057  1.00  0.00     0.001 A 
HETATM   18  C16 UNL     1     -14.311   6.852   6.435  1.00  0.00     0.000 A 
HETATM   19  C15 UNL     1     -14.741   7.385   5.220  1.00  0.00     0.001 A 
HETATM   20  C13 UNL     1     -14.034   8.431   4.627  1.00  0.00     0.007 A 
ENDBRANCH  14  15
ENDBRANCH  11  14
ENDBRANCH   4  10
BRANCH   5  21
HETATM   21  C8  UNL     1      -8.928   6.991   8.620  1.00  0.00     0.176 C 
HETATM   22  O2  UNL     1      -7.869   6.498   8.980  1.00  0.00    -0.648 OA
BRANCH  21  23
HETATM   23  O1  UNL     1     -10.109   6.327   8.596  1.00  0.00    -0.775 OA
HETATM   24  H13 UNL     1     -10.604   6.428   9.438  1.00  0.00     0.167 HD
ENDBRANCH  21  23
ENDBRANCH   5  21
TORSDOF 5
ENDMDL
MODEL 9
REMARK VINA RESULT:      -6.0     47.854     49.465
REMARK  5 active torsions:
REMARK  status: ('A' for Active; 'I' for Inactive)
REMARK    1  A    between atoms: O1_2  and  C8_14 
REMARK    2  A    between atoms: N2_6  and  C2_8 
REMARK       I    between atoms: N2_6  and  C9_15 
REMARK    3  A    between atoms: C3_9  and  C8_14 
REMARK    4  A    between atoms: C9_15  and  C10_16 
REMARK    5  A    between atoms: C10_16  and  C11_17 
ROOT
HETATM    1  S1  UNL     1      25.360  11.046   9.962  1.00  0.00    -0.119 SA
HETATM    2  N1  UNL     1      24.878  11.150  12.655  1.00  0.00     0.123 N 
HETATM    3  C1  UNL     1      24.246  10.721  11.381  1.00  0.00     0.310 C 
HETATM    4  C2  UNL     1      23.172  11.808  11.562  1.00  0.00     0.156 C 
HETATM    5  C3  UNL     1      25.942  12.109  12.306  1.00  0.00     0.339 C 
HETATM    6  C4  UNL     1      23.622  11.841  13.032  1.00  0.00     0.303 C 
HETATM    7  C5  UNL     1      26.717  11.550  11.095  1.00  0.00     0.044 C 
HETATM    8  C6  UNL     1      27.568  12.621  10.409  1.00  0.00     0.029 C 
HETATM    9  C7  UNL     1      27.568  10.307  11.398  1.00  0.00     0.029 C 
ENDROOT
BRANCH   4  10
HETATM   10  N2  UNL     1      23.298  13.089  10.862  1.00  0.00    -0.352 N 
HETATM   11  C9  UNL     1      22.199  13.813  10.405  1.00  0.00     0.222 C 
HETATM   12  O3  UNL     1      21.031  13.457  10.540  1.00  0.00    -0.273 OA
HETATM   13  H12 UNL     1      24.228  13.469  10.696  1.00  0.00     0.163 HD
BRANCH  11  14
HETATM   14  C10 UNL     1      22.611  15.097   9.711  1.00  0.00     0.141 C 
BRANCH  14  15
HETATM   15  C11 UNL     1      22.776  14.943   8.222  1.00  0.00    -0.050 A 
HETATM   16  C12 UNL     1      23.599  15.822   7.518  1.00  0.00     0.007 A 
HETATM   17  C14 UNL     1      23.751  15.680   6.137  1.00  0.00     0.001 A 
HETATM   18  C16 UNL     1      23.081  14.660   5.464  1.00  0.00     0.000 A 
HETATM   19  C15 UNL     1      22.258  13.782   6.169  1.00  0.00     0.001 A 
HETATM   20  C13 UNL     1      22.106  13.923   7.548  1.00  0.00     0.007 A 
ENDBRANCH  14  15
ENDBRANCH  11  14
ENDBRANCH   4  10
BRANCH   5  21
HETATM   21  C8  UNL     1      26.796  12.277  13.529  1.00  0.00     0.176 C 
HETATM   22  O2  UNL     1      27.693  13.099  13.652  1.00  0.00    -0.648 OA
BRANCH  21  23
HETATM   23  O1  UNL     1      26.440  11.387  14.487  1.00  0.00    -0.775 OA
HETATM   24  H13 UNL     1      27.078  11.378  15.233  1.00  0.00     0.167 HD
ENDBRANCH  21  23
ENDBRANCH   5  21
TORSDOF 5
ENDMDL
